<?xml version="1.0" encoding="UTF-8"?>

<!-- generated on 2026-03-03T01:50:23.944115+06:00 by Eclipse SUMO netconvert 1.26.0
<netconvertConfiguration xmlns:xsi="http://www.w3.org/2001/XMLSchema-instance" xsi:noNamespaceSchemaLocation="http://sumo.dlr.de/xsd/netconvertConfiguration.xsd">

    <input>
        <osm-files value="E:\WorkSamples_SakifShahriyar\sumo_starter\kataban_area.osm"/>
    </input>

    <output>
        <output-file value="E:\WorkSamples_SakifShahriyar\sumo_starter\kataban_joined_nomicros.net.xml"/>
    </output>

    <projection>
        <proj.utm value="true"/>
    </projection>

    <processing>
        <geometry.remove value="true"/>
        <geometry.remove.min-length value="5"/>
        <lefthand value="true"/>
        <edges.join value="true"/>
    </processing>

    <tls_building>
        <tls.join value="true"/>
        <tls.join-dist value="30"/>
        <tls.guess-signals value="true"/>
    </tls_building>

    <junctions>
        <junctions.join value="true"/>
        <junctions.join-dist value="20"/>
    </junctions>

</netconvertConfiguration>
-->

<net version="1.20" junctionCornerDetail="5" lefthand="true" limitTurnSpeed="5.50" xmlns:xsi="http://www.w3.org/2001/XMLSchema-instance" xsi:noNamespaceSchemaLocation="http://sumo.dlr.de/xsd/net_file.xsd">

    <location netOffset="-233282.31,-2627076.26" convBoundary="0.00,-0.00,1256.21,1873.24" origBoundary="90.383568,23.732677,90.395896,23.749688" projParameter="+proj=utm +zone=46 +ellps=WGS84 +datum=WGS84 +units=m +no_defs"/>

    <type id="highway.secondary" priority="11" numLanes="1" speed="27.78" disallow="tram rail_urban rail rail_electric rail_fast ship container cable_car subway aircraft wheelchair scooter drone" oneway="0"/>
    <type id="highway.service" priority="1" numLanes="1" speed="5.56" allow="pedestrian delivery bicycle" oneway="0"/>
    <type id="highway.trunk" priority="13" numLanes="2" speed="27.78" disallow="pedestrian bicycle tram rail_urban rail rail_electric rail_fast ship container cable_car subway aircraft wheelchair scooter drone" oneway="0"/>

    <edge id=":10760819054_0" function="internal">
        <lane id=":10760819054_0_0" index="0" allow="pedestrian delivery bicycle" speed="3.65" length="4.67" shape="872.20,585.79 873.30,584.86 873.61,584.02 873.12,583.27 871.84,582.61"/>
    </edge>
    <edge id=":2998735255_0" function="internal">
        <lane id=":2998735255_0_0" index="0" allow="pedestrian delivery bicycle" speed="3.65" length="4.67" shape="808.59,497.46 807.17,497.24 806.33,497.56 806.08,498.42 806.43,499.82"/>
    </edge>
    <edge id=":cluster_2320178528_3341584387_3341584388_3341584389_0" function="internal">
        <lane id=":cluster_2320178528_3341584387_3341584388_3341584389_0_0" index="0" disallow="pedestrian bicycle tram rail_urban rail rail_electric rail_fast ship container cable_car subway aircraft wheelchair scooter drone" speed="8.91" length="14.90" shape="765.70,659.48 761.48,659.70 758.03,658.79 755.34,656.74 753.42,653.55"/>
    </edge>
    <edge id=":cluster_2320178528_3341584387_3341584388_3341584389_1" function="internal">
        <lane id=":cluster_2320178528_3341584387_3341584388_3341584389_1_0" index="0" disallow="pedestrian bicycle tram rail_urban rail rail_electric rail_fast ship container cable_car subway aircraft wheelchair scooter drone" speed="12.50" length="26.98" shape="765.70,659.48 739.14,664.50"/>
        <lane id=":cluster_2320178528_3341584387_3341584388_3341584389_1_1" index="1" disallow="pedestrian bicycle tram rail_urban rail rail_electric rail_fast ship container cable_car subway aircraft wheelchair scooter drone" speed="12.50" length="26.98" shape="766.21,662.63 739.70,667.65"/>
        <lane id=":cluster_2320178528_3341584387_3341584388_3341584389_1_2" index="2" disallow="pedestrian bicycle tram rail_urban rail rail_electric rail_fast ship container cable_car subway aircraft wheelchair scooter drone" speed="12.50" length="26.98" shape="766.73,665.79 740.26,670.80"/>
    </edge>
    <edge id=":cluster_2320178528_3341584387_3341584388_3341584389_4" function="internal">
        <lane id=":cluster_2320178528_3341584387_3341584388_3341584389_4_0" index="0" disallow="pedestrian bicycle tram rail_urban rail rail_electric rail_fast ship container cable_car subway aircraft wheelchair scooter drone" speed="9.88" length="5.43" shape="766.73,665.79 761.58,667.53"/>
    </edge>
    <edge id=":cluster_2320178528_3341584387_3341584388_3341584389_5" function="internal">
        <lane id=":cluster_2320178528_3341584387_3341584388_3341584389_5_0" index="0" disallow="pedestrian bicycle tram rail_urban rail rail_electric rail_fast ship container cable_car subway aircraft wheelchair scooter drone" speed="3.73" length="1.66" shape="766.73,665.79 765.61,666.84 765.57,666.96"/>
    </edge>
    <edge id=":cluster_2320178528_3341584387_3341584388_3341584389_22" function="internal">
        <lane id=":cluster_2320178528_3341584387_3341584388_3341584389_22_0" index="0" disallow="pedestrian bicycle tram rail_urban rail rail_electric rail_fast ship container cable_car subway aircraft wheelchair scooter drone" speed="9.88" length="20.54" shape="761.58,667.53 760.03,668.06 756.22,672.02 755.31,677.70 757.29,685.08"/>
    </edge>
    <edge id=":cluster_2320178528_3341584387_3341584388_3341584389_23" function="internal">
        <lane id=":cluster_2320178528_3341584387_3341584388_3341584389_23_0" index="0" disallow="pedestrian bicycle tram rail_urban rail rail_electric rail_fast ship container cable_car subway aircraft wheelchair scooter drone" speed="3.73" length="3.30" shape="765.57,666.96 765.33,667.74 765.89,668.52 767.28,669.15"/>
    </edge>
    <edge id=":cluster_2320178528_3341584387_3341584388_3341584389_6" function="internal">
        <lane id=":cluster_2320178528_3341584387_3341584388_3341584389_6_0" index="0" disallow="pedestrian bicycle tram rail_urban rail rail_electric rail_fast ship container cable_car subway aircraft wheelchair scooter drone" speed="6.08" length="9.08" shape="764.66,682.01 764.04,679.51 764.44,677.59 765.86,676.24 768.32,675.46"/>
    </edge>
    <edge id=":cluster_2320178528_3341584387_3341584388_3341584389_7" function="internal">
        <lane id=":cluster_2320178528_3341584387_3341584388_3341584389_7_0" index="0" disallow="tram rail_urban rail rail_electric rail_fast ship container cable_car subway aircraft wheelchair scooter drone" speed="11.11" length="30.61" shape="764.66,682.01 753.42,653.55"/>
        <lane id=":cluster_2320178528_3341584387_3341584388_3341584389_7_1" index="1" disallow="tram rail_urban rail rail_electric rail_fast ship container cable_car subway aircraft wheelchair scooter drone" speed="11.11" length="30.61" shape="761.71,683.24 750.46,654.77"/>
    </edge>
    <edge id=":cluster_2320178528_3341584387_3341584388_3341584389_9" function="internal">
        <lane id=":cluster_2320178528_3341584387_3341584388_3341584389_9_0" index="0" disallow="pedestrian bicycle tram rail_urban rail rail_electric rail_fast ship container cable_car subway aircraft wheelchair scooter drone" speed="11.85" length="10.34" shape="761.71,683.24 758.05,676.78 755.86,674.85"/>
    </edge>
    <edge id=":cluster_2320178528_3341584387_3341584388_3341584389_10" function="internal">
        <lane id=":cluster_2320178528_3341584387_3341584388_3341584389_10_0" index="0" disallow="pedestrian bicycle tram rail_urban rail rail_electric rail_fast ship container cable_car subway aircraft wheelchair scooter drone" speed="4.22" length="3.49" shape="761.71,683.24 759.91,682.05 758.58,681.95"/>
    </edge>
    <edge id=":cluster_2320178528_3341584387_3341584388_3341584389_24" function="internal">
        <lane id=":cluster_2320178528_3341584387_3341584388_3341584389_24_0" index="0" disallow="pedestrian bicycle tram rail_urban rail rail_electric rail_fast ship container cable_car subway aircraft wheelchair scooter drone" speed="11.85" length="16.80" shape="755.86,674.85 753.26,672.55 747.33,670.56 740.26,670.80"/>
    </edge>
    <edge id=":cluster_2320178528_3341584387_3341584388_3341584389_25" function="internal">
        <lane id=":cluster_2320178528_3341584387_3341584388_3341584389_25_0" index="0" disallow="pedestrian bicycle tram rail_urban rail rail_electric rail_fast ship container cable_car subway aircraft wheelchair scooter drone" speed="4.22" length="3.49" shape="758.58,681.95 757.70,682.97 757.29,685.08"/>
    </edge>
    <edge id=":cluster_2320178528_3341584387_3341584388_3341584389_11" function="internal">
        <lane id=":cluster_2320178528_3341584387_3341584388_3341584389_11_0" index="0" disallow="pedestrian bicycle tram rail_urban rail rail_electric rail_fast ship container cable_car subway aircraft wheelchair scooter drone" speed="9.14" length="15.45" shape="741.84,679.64 746.03,679.51 749.51,680.57 752.28,682.84 754.34,686.31"/>
    </edge>
    <edge id=":cluster_2320178528_3341584387_3341584388_3341584389_12" function="internal">
        <lane id=":cluster_2320178528_3341584387_3341584388_3341584389_12_0" index="0" disallow="pedestrian bicycle tram rail_urban rail rail_electric rail_fast ship container cable_car subway aircraft wheelchair scooter drone" speed="11.11" length="26.85" shape="741.84,679.64 768.32,675.46"/>
        <lane id=":cluster_2320178528_3341584387_3341584388_3341584389_12_1" index="1" disallow="pedestrian bicycle tram rail_urban rail rail_electric rail_fast ship container cable_car subway aircraft wheelchair scooter drone" speed="11.11" length="26.85" shape="741.28,676.49 767.80,672.31"/>
        <lane id=":cluster_2320178528_3341584387_3341584388_3341584389_12_2" index="2" disallow="pedestrian bicycle tram rail_urban rail rail_electric rail_fast ship container cable_car subway aircraft wheelchair scooter drone" speed="11.11" length="26.85" shape="740.72,673.34 767.28,669.15"/>
    </edge>
    <edge id=":cluster_2320178528_3341584387_3341584388_3341584389_15" function="internal">
        <lane id=":cluster_2320178528_3341584387_3341584388_3341584389_15_0" index="0" disallow="pedestrian bicycle tram rail_urban rail rail_electric rail_fast ship container cable_car subway aircraft wheelchair scooter drone" speed="9.76" length="0.75" shape="740.72,673.34 741.43,673.11"/>
    </edge>
    <edge id=":cluster_2320178528_3341584387_3341584388_3341584389_16" function="internal">
        <lane id=":cluster_2320178528_3341584387_3341584388_3341584389_16_0" index="0" disallow="pedestrian bicycle tram rail_urban rail rail_electric rail_fast ship container cable_car subway aircraft wheelchair scooter drone" speed="3.41" length="2.50" shape="740.72,673.34 741.56,672.54 741.76,671.84 741.40,671.35"/>
    </edge>
    <edge id=":cluster_2320178528_3341584387_3341584388_3341584389_26" function="internal">
        <lane id=":cluster_2320178528_3341584387_3341584388_3341584389_26_0" index="0" disallow="pedestrian bicycle tram rail_urban rail rail_electric rail_fast ship container cable_car subway aircraft wheelchair scooter drone" speed="9.76" length="24.66" shape="741.43,673.11 747.42,671.19 751.28,667.38 752.29,661.91 750.46,654.77"/>
    </edge>
    <edge id=":cluster_2320178528_3341584387_3341584388_3341584389_27" function="internal">
        <lane id=":cluster_2320178528_3341584387_3341584388_3341584389_27_0" index="0" disallow="pedestrian bicycle tram rail_urban rail rail_electric rail_fast ship container cable_car subway aircraft wheelchair scooter drone" speed="3.41" length="1.28" shape="741.40,671.35 741.33,671.26 740.26,670.80"/>
    </edge>
    <edge id=":cluster_2320178528_3341584387_3341584388_3341584389_17" function="internal">
        <lane id=":cluster_2320178528_3341584387_3341584388_3341584389_17_0" index="0" disallow="pedestrian bicycle tram rail_urban rail rail_electric rail_fast ship container cable_car subway aircraft wheelchair scooter drone" speed="6.09" length="9.06" shape="742.76,657.92 743.39,660.40 743.00,662.33 741.58,663.69 739.14,664.50"/>
    </edge>
    <edge id=":cluster_2320178528_3341584387_3341584388_3341584389_18" function="internal">
        <lane id=":cluster_2320178528_3341584387_3341584388_3341584389_18_0" index="0" disallow="tram rail_urban rail rail_electric rail_fast ship container cable_car subway aircraft wheelchair scooter drone" speed="19.45" length="30.66" shape="742.76,657.92 754.34,686.31"/>
        <lane id=":cluster_2320178528_3341584387_3341584388_3341584389_18_1" index="1" disallow="tram rail_urban rail rail_electric rail_fast ship container cable_car subway aircraft wheelchair scooter drone" speed="19.45" length="30.66" shape="745.72,656.70 757.29,685.08"/>
    </edge>
    <edge id=":cluster_2320178528_3341584387_3341584388_3341584389_20" function="internal">
        <lane id=":cluster_2320178528_3341584387_3341584388_3341584389_20_0" index="0" disallow="pedestrian bicycle tram rail_urban rail rail_electric rail_fast ship container cable_car subway aircraft wheelchair scooter drone" speed="11.11" length="10.68" shape="745.72,656.70 749.38,663.09 751.88,665.27"/>
    </edge>
    <edge id=":cluster_2320178528_3341584387_3341584388_3341584389_21" function="internal">
        <lane id=":cluster_2320178528_3341584387_3341584388_3341584389_21_0" index="0" disallow="pedestrian bicycle tram rail_urban rail rail_electric rail_fast ship container cable_car subway aircraft wheelchair scooter drone" speed="4.32" length="4.06" shape="745.72,656.70 747.63,658.00 749.06,658.10 749.27,657.86"/>
    </edge>
    <edge id=":cluster_2320178528_3341584387_3341584388_3341584389_28" function="internal">
        <lane id=":cluster_2320178528_3341584387_3341584388_3341584389_28_0" index="0" disallow="pedestrian bicycle tram rail_urban rail rail_electric rail_fast ship container cable_car subway aircraft wheelchair scooter drone" speed="11.11" length="16.50" shape="751.88,665.27 754.19,667.30 760.16,669.32 767.28,669.15"/>
    </edge>
    <edge id=":cluster_2320178528_3341584387_3341584388_3341584389_29" function="internal">
        <lane id=":cluster_2320178528_3341584387_3341584388_3341584389_29_0" index="0" disallow="pedestrian bicycle tram rail_urban rail rail_electric rail_fast ship container cable_car subway aircraft wheelchair scooter drone" speed="4.32" length="3.41" shape="749.27,657.86 750.00,657.03 750.46,654.77"/>
    </edge>

    <edge id="-296106677" from="10760819054" to="2998735255" priority="1" type="highway.service" shape="872.02,584.20 843.24,587.53 839.67,557.13 837.15,537.96 834.84,532.07 829.71,519.00 807.51,498.64">
        <lane id="-296106677_0" index="0" allow="pedestrian delivery bicycle" speed="5.56" length="127.36" shape="871.84,582.61 844.64,585.76 841.26,556.93 838.71,537.56 836.33,531.49 831.06,518.07 808.59,497.46"/>
    </edge>
    <edge id="156019117" from="cluster_2320178528_3341584387_3341584388_3341584389" to="372746954" priority="11" type="highway.secondary" spreadType="center" shape="751.30,674.87 790.88,769.79 811.10,818.26 816.99,837.93 823.59,859.96 827.43,876.96 840.88,951.05 847.84,985.79 849.03,991.58 869.95,1097.43 878.58,1151.29 905.11,1305.53 935.87,1457.32 937.33,1465.93">
        <lane id="156019117_0" index="0" disallow="tram rail_urban rail rail_electric rail_fast ship container cable_car subway aircraft wheelchair scooter drone" speed="27.78" length="803.79" shape="754.34,686.31 789.40,770.41 809.59,818.80 815.46,838.39 822.04,860.37 825.86,877.28 839.31,951.35 846.27,986.11 847.46,991.90 868.37,1097.71 877.00,1151.55 903.54,1305.82 934.30,1457.61 935.75,1466.20"/>
        <lane id="156019117_1" index="1" disallow="tram rail_urban rail rail_electric rail_fast ship container cable_car subway aircraft wheelchair scooter drone" speed="27.78" length="803.79" shape="757.29,685.08 792.36,769.17 812.61,817.72 818.52,837.47 825.14,859.55 829.00,876.64 842.45,950.75 849.41,985.47 850.60,991.26 871.53,1097.15 880.16,1151.03 906.68,1305.24 937.44,1457.03 938.91,1465.66"/>
    </edge>
    <edge id="223073607" from="3345591080" to="cluster_2320178528_3341584387_3341584388_3341584389" priority="13" type="highway.trunk" spreadType="center" shape="19.23,690.73 121.75,700.84 148.01,703.53 178.82,706.68 250.81,706.57 325.57,708.55 461.51,711.34 496.06,710.71 520.36,710.40 554.54,705.59 560.18,704.80 683.18,685.90 751.30,674.87">
        <lane id="223073607_0" index="0" disallow="pedestrian bicycle tram rail_urban rail rail_electric rail_fast ship container cable_car subway aircraft wheelchair scooter drone" speed="11.11" length="725.50" shape="18.92,693.91 121.43,704.02 147.68,706.71 178.66,709.88 250.77,709.77 325.49,711.75 461.51,714.54 496.11,713.91 520.60,713.60 554.99,708.76 560.64,707.97 683.68,689.06 741.84,679.64"/>
        <lane id="223073607_1" index="1" disallow="pedestrian bicycle tram rail_urban rail rail_electric rail_fast ship container cable_car subway aircraft wheelchair scooter drone" speed="11.11" length="725.50" shape="19.23,690.73 121.75,700.84 148.01,703.53 178.82,706.68 250.81,706.57 325.57,708.55 461.51,711.34 496.06,710.71 520.36,710.40 554.54,705.59 560.18,704.80 683.18,685.90 741.28,676.49"/>
        <lane id="223073607_2" index="2" disallow="pedestrian bicycle tram rail_urban rail rail_electric rail_fast ship container cable_car subway aircraft wheelchair scooter drone" speed="11.11" length="725.50" shape="19.54,687.55 122.07,697.66 148.34,700.35 178.98,703.48 250.85,703.37 325.65,705.35 461.51,708.14 496.01,707.51 520.12,707.20 554.09,702.42 559.72,701.63 682.68,682.74 740.72,673.34"/>
    </edge>
    <edge id="223076782#1" from="cluster_2320178528_3341584387_3341584388_3341584389" to="5002763981" priority="11" type="highway.secondary" spreadType="center" shape="756.12,664.38 739.51,623.79 716.77,578.69 692.53,535.58 648.41,469.16 619.69,432.25 593.81,399.69 563.84,363.18 557.79,355.83 527.27,315.45 490.99,266.74 449.55,210.10 436.88,191.27 425.93,174.59 409.91,147.95 392.28,116.56 389.56,111.70 384.06,100.46 377.69,84.46 368.97,61.81 361.91,40.76 351.47,-0.00">
        <lane id="223076782#1_0" index="0" disallow="tram rail_urban rail rail_electric rail_fast ship container cable_car subway aircraft wheelchair scooter drone" speed="11.11" length="772.76" shape="753.42,653.55 740.97,623.13 718.18,577.94 693.90,534.74 649.71,468.22 620.95,431.26 595.05,398.68 565.08,362.16 559.05,354.84 528.55,314.49 492.28,265.79 450.86,209.18 438.21,190.38 427.28,173.74 411.29,147.15 393.68,115.78 390.98,110.96 385.52,99.81 379.18,83.88 370.48,61.27 363.45,40.31 353.02,-0.40"/>
        <lane id="223076782#1_1" index="1" disallow="tram rail_urban rail rail_electric rail_fast ship container cable_car subway aircraft wheelchair scooter drone" speed="11.11" length="772.76" shape="750.46,654.77 738.05,624.45 715.36,579.44 691.16,536.42 647.11,470.10 618.43,433.24 592.57,400.70 562.60,364.20 556.53,356.82 525.99,316.41 489.70,267.69 448.24,211.02 435.55,192.16 424.58,175.44 408.53,148.75 390.88,117.34 388.14,112.44 382.60,101.11 376.20,85.04 367.46,62.35 360.37,41.21 349.92,0.40"/>
    </edge>
    <edge id="24403500#0" from="5002763980" to="cluster_2320178528_3341584387_3341584388_3341584389" priority="11" type="highway.secondary" spreadType="center" shape="343.33,1.29 344.58,8.44 350.21,34.07 358.05,60.76 369.91,93.40 378.55,111.55 383.65,121.57 385.81,125.25 388.08,129.33 411.93,169.64 443.86,213.66 549.71,357.59 557.61,368.51 599.99,422.88 642.51,474.39 685.87,539.01 709.56,582.17 731.22,625.71 747.90,666.19">
        <lane id="24403500#0_0" index="0" disallow="tram rail_urban rail rail_electric rail_fast ship container cable_car subway aircraft wheelchair scooter drone" speed="11.11" length="775.27" shape="341.75,1.57 343.01,8.75 348.66,34.47 356.53,61.26 368.43,94.02 377.11,112.26 382.25,122.34 384.42,126.04 386.69,130.13 410.59,170.52 442.57,214.60 548.42,358.53 556.33,369.47 598.74,423.88 641.23,475.35 684.50,539.84 708.14,582.91 729.76,626.37 742.76,657.92"/>
        <lane id="24403500#0_1" index="1" disallow="tram rail_urban rail rail_electric rail_fast ship container cable_car subway aircraft wheelchair scooter drone" speed="11.11" length="775.27" shape="344.91,1.01 346.15,8.13 351.76,33.67 359.57,60.26 371.39,92.78 379.99,110.84 385.05,120.80 387.20,124.46 389.47,128.53 413.27,168.76 445.15,212.72 551.00,356.65 558.89,367.55 601.24,421.88 643.79,473.43 687.24,538.18 710.98,581.43 732.68,625.05 745.72,656.70"/>
    </edge>
    <edge id="296106677" from="2998735255" to="10760819054" priority="1" type="highway.service" shape="807.51,498.64 829.71,519.00 834.84,532.07 837.15,537.96 839.67,557.13 843.24,587.53 872.02,584.20">
        <lane id="296106677_0" index="0" allow="pedestrian delivery bicycle" speed="5.56" length="131.45" shape="806.43,499.82 828.36,519.93 833.35,532.65 835.59,538.36 838.08,557.33 841.84,589.30 872.20,585.79"/>
    </edge>
    <edge id="528314136" from="2320177512" to="cluster_2320178528_3341584387_3341584388_3341584389" priority="11" type="highway.secondary" spreadType="center" shape="1004.07,1873.24 1003.63,1851.40 996.06,1798.67 993.54,1779.96 979.25,1700.78 965.19,1621.15 961.71,1599.41 953.83,1522.95 945.55,1464.38 943.90,1455.79 929.11,1383.05 920.44,1340.87 913.76,1308.36 904.41,1255.71 887.73,1161.70 878.93,1107.18 869.92,1058.39 860.83,1010.47 856.96,989.99 856.04,984.31 848.65,946.76 830.11,858.37 823.52,836.23 817.42,815.75 759.53,673.66">
        <lane id="528314136_0" index="0" disallow="tram rail_urban rail rail_electric rail_fast ship container cable_car subway aircraft wheelchair scooter drone" speed="11.11" length="1218.54" shape="1005.67,1873.21 1005.23,1851.27 997.64,1798.45 995.12,1779.71 980.83,1700.50 966.77,1620.88 963.30,1599.20 955.42,1522.76 947.13,1464.12 945.47,1455.48 930.68,1382.73 922.01,1340.55 915.33,1308.06 905.99,1255.43 889.31,1161.43 880.51,1106.91 871.49,1058.10 862.40,1010.17 858.54,989.71 857.62,984.03 850.22,946.44 831.66,857.98 825.05,835.77 818.93,815.22 764.66,682.01"/>
        <lane id="528314136_1" index="1" disallow="tram rail_urban rail rail_electric rail_fast ship container cable_car subway aircraft wheelchair scooter drone" speed="11.11" length="1218.54" shape="1002.47,1873.27 1002.03,1851.53 994.48,1798.89 991.96,1780.21 977.67,1701.06 963.61,1621.42 960.12,1599.62 952.24,1523.14 943.97,1464.64 942.33,1456.10 927.54,1383.37 918.87,1341.19 912.19,1308.66 902.83,1255.99 886.15,1161.97 877.35,1107.45 868.35,1058.68 859.26,1010.77 855.38,990.27 854.46,984.59 847.08,947.08 828.56,858.76 821.99,836.69 815.91,816.28 761.71,683.24"/>
    </edge>
    <edge id="691209722" from="cluster_2320178528_3341584387_3341584388_3341584389" to="1786611846" priority="13" type="highway.trunk" spreadType="center" shape="747.90,666.19 682.71,677.77 559.46,695.78 512.66,701.18 493.93,701.38 452.55,702.63 431.42,700.67 382.42,699.61 270.94,696.90 249.91,695.88 238.96,696.50 196.74,695.29 179.62,694.52 161.48,692.97 53.35,683.80 0.00,679.29">
        <lane id="691209722_0" index="0" disallow="pedestrian bicycle tram rail_urban rail rail_electric rail_fast ship container cable_car subway aircraft wheelchair scooter drone" speed="13.89" length="743.09" shape="739.14,664.50 682.20,674.61 559.05,692.61 512.46,697.98 493.86,698.18 452.65,699.43 431.60,697.47 382.49,696.41 271.06,693.70 249.90,692.68 238.92,693.30 196.86,692.09 179.83,691.33 161.75,689.78 53.62,680.61 0.27,676.10"/>
        <lane id="691209722_1" index="1" disallow="pedestrian bicycle tram rail_urban rail rail_electric rail_fast ship container cable_car subway aircraft wheelchair scooter drone" speed="13.89" length="743.09" shape="739.70,667.65 682.71,677.77 559.46,695.78 512.66,701.18 493.93,701.38 452.55,702.63 431.42,700.67 382.42,699.61 270.94,696.90 249.91,695.88 238.96,696.50 196.74,695.29 179.62,694.52 161.48,692.97 53.35,683.80 0.00,679.29"/>
        <lane id="691209722_2" index="2" disallow="pedestrian bicycle tram rail_urban rail rail_electric rail_fast ship container cable_car subway aircraft wheelchair scooter drone" speed="13.89" length="743.09" shape="740.26,670.80 683.22,680.93 559.87,698.95 512.86,704.38 494.00,704.58 452.45,705.83 431.24,703.87 382.35,702.81 270.82,700.10 249.92,699.08 239.00,699.70 196.62,698.49 179.41,697.71 161.21,696.16 53.08,686.99 -0.27,682.48"/>
    </edge>
    <edge id="691209726#0" from="10016425278" to="cluster_2320178528_3341584387_3341584388_3341584389" priority="13" type="highway.trunk" spreadType="center" shape="1254.75,580.81 1248.19,581.39 1214.14,584.45 1193.57,587.57 1048.47,614.36 1008.77,621.44 883.18,642.40 756.12,664.38">
        <lane id="691209726#0_0" index="0" disallow="pedestrian bicycle tram rail_urban rail rail_electric rail_fast ship container cable_car subway aircraft wheelchair scooter drone" speed="11.11" length="495.49" shape="1254.47,577.62 1247.90,578.20 1213.76,581.27 1193.04,584.41 1047.90,611.21 1008.23,618.29 882.64,639.25 765.70,659.48"/>
        <lane id="691209726#0_1" index="1" disallow="pedestrian bicycle tram rail_urban rail rail_electric rail_fast ship container cable_car subway aircraft wheelchair scooter drone" speed="11.11" length="495.49" shape="1254.75,580.81 1248.19,581.39 1214.14,584.45 1193.57,587.57 1048.47,614.36 1008.77,621.44 883.18,642.40 766.21,662.63"/>
        <lane id="691209726#0_2" index="2" disallow="pedestrian bicycle tram rail_urban rail rail_electric rail_fast ship container cable_car subway aircraft wheelchair scooter drone" speed="11.11" length="495.49" shape="1255.03,584.00 1248.48,584.58 1214.52,587.63 1194.10,590.73 1049.04,617.51 1009.31,624.59 883.72,645.55 766.73,665.79"/>
    </edge>
    <edge id="691209732#1" from="cluster_2320178528_3341584387_3341584388_3341584389" to="2320154919" priority="13" type="highway.trunk" spreadType="center" shape="759.53,673.66 886.00,652.95 893.47,651.63 1048.98,624.20 1195.50,595.51 1250.28,593.36 1256.21,593.13">
        <lane id="691209732#1_0" index="0" disallow="pedestrian bicycle tram rail_urban rail rail_electric rail_fast ship container cable_car subway aircraft wheelchair scooter drone" speed="11.11" length="495.33" shape="768.32,675.46 886.52,656.11 894.03,654.78 1049.57,627.35 1195.87,598.70 1250.41,596.56 1256.33,596.33"/>
        <lane id="691209732#1_1" index="1" disallow="pedestrian bicycle tram rail_urban rail rail_electric rail_fast ship container cable_car subway aircraft wheelchair scooter drone" speed="11.11" length="495.33" shape="767.80,672.31 886.00,652.95 893.47,651.63 1048.98,624.20 1195.50,595.51 1250.28,593.36 1256.21,593.13"/>
        <lane id="691209732#1_2" index="2" disallow="pedestrian bicycle tram rail_urban rail rail_electric rail_fast ship container cable_car subway aircraft wheelchair scooter drone" speed="11.11" length="495.33" shape="767.28,669.15 885.48,649.79 892.91,648.48 1048.39,621.05 1195.13,592.32 1250.15,590.16 1256.09,589.93"/>
    </edge>

    <tlLogic id="cluster_2320178528_3341584387_3341584388_3341584389" type="static" programID="0" offset="0">
        <phase duration="42" state="GGGGggrrrrrGGGGggrrrrr"/>
        <phase duration="3"  state="yyyyyyrrrrryyyyyyrrrrr"/>
        <phase duration="42" state="rrrrrrGGGggrrrrrrGGGgg"/>
        <phase duration="3"  state="rrrrrryyyyyrrrrrryyyyy"/>
    </tlLogic>

    <junction id="10016425278" type="dead_end" x="1254.75" y="580.81" incLanes="" intLanes="" shape="1255.17,585.59 1254.33,576.03"/>
    <junction id="10760819054" type="priority" x="872.02" y="584.20" incLanes="296106677_0" intLanes=":10760819054_0_0" shape="872.02,584.20 872.39,587.38 872.02,584.20">
        <request index="0" response="0" foes="0" cont="0"/>
    </junction>
    <junction id="1786611846" type="dead_end" x="0.00" y="679.29" incLanes="691209722_0 691209722_1 691209722_2" intLanes="" shape="0.40,674.51 -0.40,684.07"/>
    <junction id="2320154919" type="dead_end" x="1256.21" y="593.13" incLanes="691209732#1_0 691209732#1_1 691209732#1_2" intLanes="" shape="1256.40,597.93 1256.02,588.33"/>
    <junction id="2320177512" type="dead_end" x="1004.07" y="1873.24" incLanes="" intLanes="" shape="1000.87,1873.30 1007.27,1873.18"/>
    <junction id="2998735255" type="priority" x="807.51" y="498.64" incLanes="-296106677_0" intLanes=":2998735255_0_0" shape="807.51,498.64 809.67,496.28 807.51,498.64">
        <request index="0" response="0" foes="0" cont="0"/>
    </junction>
    <junction id="3345591080" type="dead_end" x="19.23" y="690.73" incLanes="" intLanes="" shape="19.70,685.95 18.76,695.51"/>
    <junction id="372746954" type="dead_end" x="937.33" y="1465.93" incLanes="156019117_0 156019117_1" intLanes="" shape="934.18,1466.46 940.48,1465.40"/>
    <junction id="5002763980" type="dead_end" x="343.33" y="1.29" incLanes="" intLanes="" shape="346.48,0.74 340.18,1.84"/>
    <junction id="5002763981" type="dead_end" x="351.47" y="-0.00" incLanes="223076782#1_0 223076782#1_1" intLanes="" shape="354.57,-0.79 348.37,0.79"/>